42
 energy: -122.013415777188 gnorm: 0.003538218199 xtb: 6.5.1 (conda-forge)
O            1.89209780689263        0.75131709075706        2.45006082573704
S            2.81830211475563        0.45437601525096        1.43229860645151
O            2.76491099836577       -0.90852650509897        0.82502746877035
O            2.95102915929777        1.37615105397291        0.29633070426585
C            4.51047084823323        0.49554446786731        2.23567124925904
F            5.45799440838362        0.38465526327878        1.31254821066678
F            4.69612770759290        1.63613714442794        2.88270388579115
F            4.65116318407865       -0.50786830217035        3.09055681592626
O            0.01083546237549       -0.82954283728812       -2.82114688062982
S            1.36748066296531       -1.05646559737114       -3.16667393319799
O            2.24514989444936       -1.41032331135743       -2.01653230866353
O            1.65089901367841       -1.84817425926525       -4.31205718163107
C            2.10693946284674        0.62002036916292       -3.56767955854318
F            3.27089649450371        0.47003677680295       -4.19765737115542
F            1.36118903297070        1.42211724175544       -4.29050944832969
F            2.42922118639581        1.25528386322352       -2.40073866822189
O           -1.64987799982186       -0.18727446179414       -0.90269644211903
S           -0.58088839299415        0.73196865130715       -1.05260862695032
O            0.80388058700919        0.23140423859343       -0.61117390554945
O           -0.49049666050718        1.61544483511839       -2.16566385480976
C           -0.81016466327498        1.89413192398937        0.42435130013403
F           -1.92508183904097        2.62474538923907        0.31543737206006
F           -0.90234730412105        1.19846750350829        1.55710460809119
F            0.21076331956434        2.74691341354546        0.53770010492989
Al           2.48411949040751       -0.15516170907172       -0.82567006684509
O            4.30844592913584       -0.19198165864875       -1.22243144380582
C            5.52478844157887        0.11893645528974       -1.90147103775524
C            5.34280448729324       -1.20884868655321       -1.30762270122915
C            5.03352281522512       -2.45831474350574       -2.04626627235150
C            5.08097097622955       -3.65980507663583       -1.33704976942976
C            4.77273600283735       -4.85302736452284       -1.96321353620957
C            4.40475823478330       -4.85920389148033       -3.30058352032979
C            4.35639072294758       -3.67027444449852       -4.00972561414610
C            4.67558927909645       -2.47469192249492       -3.39152238707737
H            6.13785588897945        0.84614232769692       -1.37914480448562
H            5.43242123447971        0.25199261902461       -2.97251803966916
H            5.81304392436147       -1.38035234126987       -0.34219918945105
H            5.35734037661491       -3.65582556299453       -0.29274466777588
H            4.81628351764959       -5.77724902112392       -1.40682067085688
H            4.15359516573377       -5.78823604976157       -3.78827912534230
H            4.05999421799336       -3.66581194439503       -5.04756121849151
H            4.63122481022381       -1.56694695271979       -3.96948890695013
