34
 energy: -92.839340802870 gnorm: 0.000749708683 xtb: 6.5.1 (conda-forge)
O            0.67903331287152       -3.27643007153596        1.15215945717959
S            1.32023858584579       -2.03268830569452        0.88548066216365
O            1.49304094293683       -1.72671774494763       -0.50188291162681
O            0.78865315980342       -0.87575072263798        1.62522505746045
C            3.01270434446984       -2.22125631776166        1.63470535616519
F            3.56480721814340       -1.04206330322261        1.90977759576066
F            2.88604076783452       -2.88014339088405        2.78249242290469
F            3.85301128638064       -2.90862481645068        0.86976845955435
O            1.03164907203598        3.01759438443219        0.65439802381743
S            1.81690329437821        2.05287598921360       -0.04001993249753
O            2.75319898845525        1.31535253640951        0.76108084023278
O            1.08629600323880        1.21447508551658       -0.97705692633915
C            2.91457401523924        3.10044871812932       -1.17307887083104
F            2.95275428637849        2.58254427216200       -2.40220540390329
F            2.47934565148388        4.35101929304380       -1.28034277383258
F            4.16926061717244        3.14021791612210       -0.72823773730369
Cu           1.76968707808017       -0.08900178093514        0.19570562037700
O            3.86791368969012       -0.61334756957977       -0.63409368122246
C            4.77725975344601       -0.03393269480012       -1.54370890541501
C            4.33734358512166       -1.43962956392913       -1.69393774691475
C            3.39568429545852       -1.83068196630853       -2.76307566754231
C            2.26855367435914       -1.04345030274728       -3.03840266569852
C            1.36870332902169       -1.44774133842893       -4.00606516698657
C            1.60146264490907       -2.60806565968837       -4.73272151591236
C            2.72927589055656       -3.38619919165060       -4.46905098823314
C            3.62511384190266       -2.99864484310478       -3.49317012934972
H            5.75204809779940        0.18345182560036       -1.12235128061991
H            4.37475868941957        0.69790285311499       -2.23105446970663
H            5.01398263655100       -2.22114821181092       -1.35785328430152
H            2.08896397437795       -0.13813907789337       -2.47270372949305
H            0.49643812708661       -0.84622348874549       -4.20577323471227
H            0.91540262051208       -2.90387101106313       -5.51183963095684
H            2.89613250292285       -4.29608005955846       -5.02470771156815
H            4.49514402211320       -3.60073144035987       -3.28238913065475
