21
 energy: -38.941164856735 gnorm: 0.000630965072 xtb: 6.5.1 (conda-forge)
Br           1.73529053795653        0.05466295467006       -1.40330005418997
Ga           3.72003636822597        0.81425178249956       -0.52245893010981
Br           5.50919023746824        1.21301731452032       -1.92570259252471
Br           3.62742195792514        2.08170154624241        1.40675171530932
O            4.44102140571525       -1.00254545525571        0.45632323062920
C            5.61388919091411       -1.78158713398953        0.65114231823916
C            4.29650077586413       -2.42180347530019        0.54028853733975
C            3.86200294256297       -3.16685135983542       -0.66935116323408
C            4.21341557429839       -2.74927660053276       -1.94906342758835
C            3.78645437287567       -3.46112064002688       -3.05546008978014
C            3.01101253122245       -4.59719013166303       -2.89256282875698
C            2.66081987500559       -5.01920260153759       -1.62016236960169
C            3.07962650264416       -4.30641332635551       -0.51125577110125
H            6.07296631589854       -1.65118936486718        1.62481428052577
H            6.29211190719934       -1.81069524867680       -0.19494710505237
H            3.81168236523391       -2.73033378730846        1.46453804173664
H            4.81867589150653       -1.86001483807869       -2.09472907479082
H            4.06006969726479       -3.12471586333152       -4.04375719953219
H            2.67759793388647       -5.15011350015045       -3.75715672427914
H            2.05436037240385       -5.90199672821217       -1.48992087005513
H            2.80051324392808       -4.63177354281082        0.47960007681718
