23
 energy: -46.213990402184 gnorm: 0.000667808433 xtb: 6.5.1 (conda-forge)
Li           2.94083886493851        0.63592674865016        0.20501751011844
O            4.15830798652582        0.24486004029581       -1.00564801619269
C            4.90261412862924        0.52675669570322       -2.16831417482065
C            4.45718328795674       -0.83876999983264       -1.86144800881047
C            3.34569424920750       -1.48554700325839       -2.60498943214658
C            2.14863831194866       -0.81604061525162       -2.83577701733345
C            1.13536438154017       -1.43559271312584       -3.54621038040277
C            1.31068100286400       -2.71920345269305       -4.03768466191412
C            2.50244910224629       -3.38816469265822       -3.81167368944615
C            3.51578775856779       -2.77642831522106       -3.09557180472978
O           -0.11037753421471        0.30904109236138        2.02605227425315
Cl           1.06537080626629        0.23322135640686        1.27143371264749
O            2.19863018680861        0.68056125250978        2.02274101107291
O            1.33612054184251       -1.08382376863304        0.82903989900602
O            1.00072193515350        1.07769198575793        0.11856558374043
H            5.93479184791812        0.80626910001717       -1.99127070768860
H            4.37533006149528        1.09190572866573       -2.92681567575005
H            5.19627702664424       -1.52501925605738       -1.45310515062942
H            1.99892612196962        0.18411214371648       -2.44735496792250
H            0.20723054390369       -0.91147493760360       -3.71761745548693
H            0.51864446032374       -3.19776457178951       -4.59348847271894
H            2.64094069502739       -4.38944598925999       -4.19016559893350
H            4.44354423243940       -3.29956082870249       -2.91777477591584
