23
 energy: -45.989949172217 gnorm: 0.000560969936 xtb: 6.5.1 (conda-forge)
F            0.52767745495617        0.81135248002238        0.07612222424587
B            1.69319373682025        0.20220623792188        0.36024665798051
F            3.93599490424584       -2.44449658149826       -0.93417837748400
F            1.55436907386419       -1.14146956956346        0.65969274151511
F            2.40895528621983        0.83346054147285        1.32766576124365
O            2.65830514815861        0.19773371287173       -0.88584793540861
C            2.65380429601996        1.24193169762926       -1.85601507168035
C            2.26067394561014       -0.11130488939196       -2.24807425934553
C            0.85799566678569       -0.53021673156694       -2.50970082069394
C           -0.10528683027716        0.35792201945971       -2.97499673965110
C           -1.39693284869852       -0.08496969856581       -3.20397208949521
C           -1.73395853920001       -1.40663487832647       -2.96462494241426
C           -0.77279454314325       -2.29656081438696       -2.51053275637649
C            0.52252829480650       -1.86420067170660       -2.29201729396792
Li           3.23027393535238       -1.76607968645064        0.29577070977730
H            3.64355256016915        1.61235921038403       -2.09494495875600
H            1.88431339383625        1.98990457297448       -1.69796430907000
H            3.01493726997958       -0.75020794537300       -2.70428942443462
H            0.15125667423713        1.38731922750040       -3.17157107600357
H           -2.14189823454503        0.60684808158879       -3.56624264106886
H           -2.74385568766266       -1.74605802598834       -3.13656710431331
H           -1.02901287332521       -3.32903665582033       -2.32986997841700
H            1.28411791578932       -2.54996163318810       -1.94363831618186
