19
 energy: -29.719976002140 gnorm: 0.001001682096 xtb: 6.5.1 (conda-forge)
Br          -0.67023055719699        0.48958899940553        1.63824488832687
Li           1.41136341447784        0.35898039404806        0.67123846847452
O            2.92897871995349        0.21442232439313       -0.27306090826342
C            3.94420561215714        0.73680713334814       -1.09319887989665
C            3.65838374759412       -0.70255000214258       -1.05883384122341
C            2.96263425636168       -1.39316501352620       -2.17578970926682
C            1.80577061097684       -0.86780319234664       -2.74140478244667
C            1.17809019808578       -1.52850259150615       -3.78258024672281
C            1.70465684491439       -2.71217317041415       -4.27351696321316
C            2.86000976089993       -3.23674832126672       -3.71734176072943
C            3.48573266239615       -2.58318399610675       -2.67061484606749
H            4.80715154061135        1.12559643673703       -0.56582778432295
H            3.60178238162893        1.32007375918848       -1.93883755783352
H            4.33354361893263       -1.33246405557878       -0.48411960149924
H            1.38527562482381        0.05562841716076       -2.36246415798272
H            0.27604538423795       -1.11691561709833       -4.21030779967733
H            1.21213718897638       -3.22661685820408       -5.08441348068278
H            3.27207640860327       -4.15911740504891       -4.09686337058779
H            4.38482258158069       -2.99436724097711       -2.23578766635480
