26
 energy: -57.474455889834 gnorm: 0.000852807016 xtb: 6.5.1 (conda-forge)
O            0.31282186820273       -0.88523937127081        2.56482942667709
S            1.27794356244662       -0.75269768770726        1.52289834503613
O            0.91185911803706        0.03860700552443        0.36017735012321
O            2.64348423478522       -0.42995758995813        1.89950635319497
C            1.51673038241736       -2.44071050941196        0.75699682210535
F            1.91007436153092       -3.36248155404947        1.63649588295160
F            0.43232193159656       -2.90403398473421        0.13650328972233
F            2.48597606928671       -2.33274519990659       -0.16636946413059
Li           2.75602278996234        0.42600732857497        0.20357042011142
O            3.96726740217327        0.69364004806784       -1.05596298619163
C            4.61086443589628        1.26644476358613       -2.17125486708211
C            4.52787181366639       -0.19105145491027       -2.00540848669671
C            3.61002641446181       -1.01699846528688       -2.83285644929289
C            2.27015660508751       -0.67300959543100       -2.97784475474279
C            1.43812706551543       -1.44517684126097       -3.76938932075238
C            1.93580408095706       -2.55916215724438       -4.42661570123039
C            3.27000640075058       -2.90417640767359       -4.28566251402449
C            4.10471773171864       -2.13888184571739       -3.49024450760697
H            5.53961486937251        1.77942829818826       -1.94572234132502
H            3.95066146268075        1.74894986128077       -2.88255415240386
H            5.41778181337843       -0.70596332274623       -1.64999648008803
H            1.87365973452897        0.18917155474364       -2.45687733276042
H            0.39833590343819       -1.17477309525312       -3.87305633140782
H            1.28411262654304       -3.15808674658111       -5.04447764816767
H            3.65989215925040       -3.77357910123604       -4.79319797674137
H            5.14408516231853       -2.41043392958698       -3.38035657528060
