30
 energy: -37.318041457893 gnorm: 0.000361746397 xtb: 6.5.1 (conda-forge)
C            1.80405021167415        1.82264304339378        0.32697232233272
Al           2.63846204784006        0.10181086485994       -0.32800044862655
C            1.77907584226196       -1.63084501144355        0.24021615242761
C            3.36481249900542        0.24654665474608       -2.21376955711536
O            4.18012267530129        0.08281636202826        0.76486001950953
C            5.41945408453613        0.74098025472174        0.87174486771525
C            5.17306589745654       -0.54649771128946        1.53560321619081
C            5.77779251341624       -1.80883633969617        1.03065275942076
C            6.72704352513557       -2.46358470263907        1.80915666220014
C            7.31544623277820       -3.62769308633370        1.34801401275089
C            6.95565003775926       -4.14800166678758        0.11497212204663
C            6.00529576629070       -3.50069350111607       -0.65752685222211
C            5.41956891646833       -2.33155352695993       -0.20450555748925
H            0.85600744575681        2.00250248404334       -0.19260408404016
H            2.40996525841889        2.71657593862578        0.13721262324063
H            1.55945879288936        1.84448719879162        1.39521681743669
H            0.75478370222914       -1.44870804033729        0.58529517905050
H            2.26994876441367       -2.18814240113322        1.04536572906476
H            1.68098555294184       -2.33501451718405       -0.59369273266872
H            2.69235953967075        0.88922710241546       -2.79398100548902
H            3.39845690238982       -0.70138001233048       -2.76289351781044
H            4.35912056735118        0.69389794249801       -2.32674745545489
H            5.40329200995555        1.66095025754505        1.44340125607477
H            6.00410523808675        0.75943327293021       -0.03965125946975
H            4.97638924596188       -0.52860771381087        2.60593882311824
H            7.00439063521257       -2.05870967531189        2.77103258234475
H            8.05323936658951       -4.13223646008185        1.95364166486138
H            7.41198349486268       -5.05942602443790       -0.24100644889924
H            5.71734537318480       -3.90650366317153       -1.61569104346137
H            4.66433786017075       -1.82900732253800       -0.79579684704191
